cases/NYISO/scenarios/offpeak/NYISO_offpeak2019_v23_shunts_as_gens.raw
 0,    100.00, 33, 0, 1, 60.00       / September 20, 2022 13:21:32; Simulator Version 22; BuildDate 2022_8_22


    1,'MORTIMER    ', 115.0000,1,  66,  66,   1,1.01547909, 101.485990, 1.10000, 0.90000, 1.10000, 0.90000
    2,'UNKNOWN124~1',  69.0000,1,  70,  70,   1,1.01186562,  80.809792, 1.10000, 0.90000, 1.10000, 0.90000
    3,'UNKNOWN124~2', 115.0000,1,  70,  70,   1,1.00959790,  79.488628, 1.10000, 0.90000, 1.10000, 0.90000
    4,'UNKNOWN124~3', 115.0000,1,  68,  68,   1,0.99428564,  83.569762, 1.10000, 0.90000, 1.10000, 0.90000
    5,'UNKNOWN124~4', 115.0000,1,  70,  70,   1,1.00920296,  80.320627, 1.10000, 0.90000, 1.10000, 0.90000
    6,'UNKNOWN124~5', 115.0000,2,  70,  70,   1,1.01999998,  85.067978, 1.10000, 0.90000, 1.10000, 0.90000
    7,'UNKNOWN124~6', 115.0000,1,  70,  70,   1,1.01733768,  83.685472, 1.10000, 0.90000, 1.10000, 0.90000
    8,'UNKNOWN124~7', 115.0000,1,  70,  70,   1,1.01951170,  82.692281, 1.10000, 0.90000, 1.10000, 0.90000
    9,'UNKNOWN124~8', 115.0000,1,  71,  71,   1,1.01673591,  71.450705, 1.10000, 0.90000, 1.10000, 0.90000
   10,'UNKNOWN124~9', 115.0000,1,  68,  68,   1,0.98587430,  80.513826, 1.10000, 0.90000, 1.10000, 0.90000
   11,'UNKNOWN12~10', 115.0000,1,  70,  70,   1,1.00973284,  79.499912, 1.10000, 0.90000, 1.10000, 0.90000
   12,'UNKNOWN12~11', 115.0000,1,  70,  70,   1,1.01898718,  82.768922, 1.10000, 0.90000, 1.10000, 0.90000
   13,'UNKNOWN12~12', 115.0000,1,  70,  70,   1,1.01685274,  82.205356, 1.10000, 0.90000, 1.10000, 0.90000
   14,'UNKNOWN12~13', 115.0000,1,  69,  69,   1,1.01463366,  80.844373, 1.10000, 0.90000, 1.10000, 0.90000
   15,'UNKNOWN12~14', 115.0000,2,  69,  69,   1,1.01999998,  98.763572, 1.10000, 0.90000, 1.10000, 0.90000
   16,'BOONVILLE   ', 115.0000,1,  69,  69,   1,1.01757395,  89.847962, 1.10000, 0.90000, 1.10000, 0.90000
   17,'UNKNOWN12~15', 138.0000,1,  75,  75,   1,1.01448989,  48.205334, 1.10000, 0.90000, 1.10000, 0.90000
   18,'GLENWOOD L~1',  69.0000,1,  75,  75,   1,1.02268291,  57.485310, 1.10000, 0.90000, 1.10000, 0.90000
   19,'NORTHPORT   ', 115.0000,2,  75,  75,   1,1.01999998,  57.954094, 1.10000, 0.90000, 1.10000, 0.90000
   20,'UNKNOWN12~16', 115.0000,1,  69,  69,   1,1.01960099, 100.167846, 1.10000, 0.90000, 1.10000, 0.90000
   21,'UNKNOWN12~17', 115.0000,2,  69,  69,   1,1.01999998, 100.269800, 1.10000, 0.90000, 1.10000, 0.90000
   22,'UNKNOWN12~18',  69.0000,1,  70,  70,   1,1.01129186,  80.676521, 1.10000, 0.90000, 1.10000, 0.90000
   23,'UNKNOWN12~19', 115.0000,1,  69,  69,   1,1.01907253,  82.558614, 1.10000, 0.90000, 1.10000, 0.90000
   24,'UNKNOWN12~20', 115.0000,2,  67,  67,   1,1.01999998, 101.297265, 1.10000, 0.90000, 1.10000, 0.90000
   25,'UNKNOWN12~21', 115.0000,1,  69,  69,   1,1.02103877,  96.523639, 1.10000, 0.90000, 1.10000, 0.90000
   26,'UNKNOWN12~22', 345.0000,2,  74,  74,   1,1.01999998,  59.522756, 1.10000, 0.90000, 1.10000, 0.90000
   27,'UNKNOWN12~23', 115.0000,1,  67,  67,   1,1.00558376,  96.255834, 1.10000, 0.90000, 1.10000, 0.90000
   28,'UNKNOWN12~24', 115.0000,1,  69,  69,   1,1.02000213,  97.123548, 1.10000, 0.90000, 1.10000, 0.90000
   29,'UNKNOWN12~25', 115.0000,1,  67,  67,   1,1.01439190,  92.466425, 1.10000, 0.90000, 1.10000, 0.90000
   30,'UNKNOWN12~26', 115.0000,2,  67,  67,   1,1.01999998,  92.233119, 1.10000, 0.90000, 1.10000, 0.90000
   31,'UNKNOWN12~27', 115.0000,2,  70,  70,   1,1.01999998,  83.240478, 1.10000, 0.90000, 1.10000, 0.90000
   32,'UNKNOWN12~28', 115.0000,1,  70,  70,   1,1.02000499,  83.182873, 1.10000, 0.90000, 1.10000, 0.90000
   33,'UNKNOWN12~29', 115.0000,1,  65,  65,   1,1.02017891,  97.746421, 1.10000, 0.90000, 1.10000, 0.90000
   34,'HAMMERHILL  ', 115.0000,1,  67,  67,   1,1.01802504, 105.857386, 1.10000, 0.90000, 1.10000, 0.90000
   35,'UNKNOWN12~30', 115.0000,2,  68,  68,   1,1.00150037,  82.960045, 1.10000, 0.90000, 1.10000, 0.90000
   36,'UNKNOWN12~31', 115.0000,1,  68,  68,   1,1.00140333,  82.985016, 1.10000, 0.90000, 1.10000, 0.90000
   37,'UNKNOWN12~32', 115.0000,2,  65,  65,   1,1.01999998, 105.314079, 1.10000, 0.90000, 1.10000, 0.90000
   38,'BLISS WIND~1', 115.0000,2,  65,  65,   1,1.01999998,  96.278743, 1.10000, 0.90000, 1.10000, 0.90000
   39,'UNKNOWN12~33', 230.0000,2,  65,  65,   1,1.01999998,  99.609642, 1.10000, 0.90000, 1.10000, 0.90000
   40,'UNKNOWN12~34', 115.0000,1,  69,  69,   1,1.01853418,  95.061111, 1.10000, 0.90000, 1.10000, 0.90000
   41,'UNKNOWN12~35', 115.0000,1,  65,  65,   1,1.01387227, 102.244503, 1.10000, 0.90000, 1.10000, 0.90000
   42,'UNKNOWN12~36', 115.0000,1,  65,  65,   1,1.02431655,  95.601919, 1.10000, 0.90000, 1.10000, 0.90000
   43,'DUGAN       ', 115.0000,1,  65,  65,   1,1.02357662,  95.327475, 1.10000, 0.90000, 1.10000, 0.90000
   44,'UNKNOWN12~37', 115.0000,1,  65,  65,   1,1.02358270,  95.332796, 1.10000, 0.90000, 1.10000, 0.90000
   45,'TAP124231   ', 115.0000,1,  65,  65,   1,1.02358830,  95.334148, 1.10000, 0.90000, 1.10000, 0.90000
   46,'W OLEAN     ', 115.0000,1,  65,  65,   1,1.02428317,  95.593442, 1.10000, 0.90000, 1.10000, 0.90000
   47,'VALLEY CAT  ', 115.0000,1,  65,  65,   1,1.02573085,  96.596087, 1.10000, 0.90000, 1.10000, 0.90000
   48,'MACHIAS #13 ', 115.0000,1,  65,  65,   1,1.02316034,  96.899095, 1.10000, 0.90000, 1.10000, 0.90000
   49,'VALLEY      ', 115.0000,1,  69,  69,   1,1.01886547,  84.276844, 1.10000, 0.90000, 1.10000, 0.90000
   50,'UNKNOWN12~38', 115.0000,1,  69,  69,   1,1.01517987,  98.607072, 1.10000, 0.90000, 1.10000, 0.90000
   51,'UNKNOWN12~39', 115.0000,1,  67,  67,   1,1.01938498,  92.755581, 1.10000, 0.90000, 1.10000, 0.90000
   52,'UNKNOWN12~40', 115.0000,2,  67,  67,   1,1.01999998,  92.885675, 1.10000, 0.90000, 1.10000, 0.90000
   53,'UNKNOWN12~41', 115.0000,2,  67,  67,   1,1.01999998,  94.129029, 1.10000, 0.90000, 1.10000, 0.90000
   54,'UNKNOWN12~42', 230.0000,1,  67,  67,   1,1.02637231,  93.968178, 1.10000, 0.90000, 1.10000, 0.90000
   55,'UNKNOWN12~43', 115.0000,1,  67,  67,   1,1.01907361,  90.561827, 1.10000, 0.90000, 1.10000, 0.90000
   56,'UNKNOWN12~44', 115.0000,1,  67,  67,   1,1.01888967,  90.161318, 1.10000, 0.90000, 1.10000, 0.90000
   57,'UNKNOWN12~45', 115.0000,1,  67,  67,   1,1.01903498,  89.791757, 1.10000, 0.90000, 1.10000, 0.90000
   58,'UNKNOWN12~46', 115.0000,1,  67,  67,   1,1.01883233, 105.722333, 1.10000, 0.90000, 1.10000, 0.90000
   59,'UNKNOWN12~47', 115.0000,1,  69,  69,   1,1.02167952,  96.470528, 1.10000, 0.90000, 1.10000, 0.90000
   60,'UNKNOWN12~48',  69.0000,2,  69,  69,   1,1.01999998,  80.290390, 1.10000, 0.90000, 1.10000, 0.90000
   61,'UNKNOWN12~49', 115.0000,1,  67,  67,   1,1.01617575,  92.635506, 1.10000, 0.90000, 1.10000, 0.90000
   62,'UNKNOWN12~50', 345.0000,1,  70,  70,   1,1.02000976,  83.747695, 1.10000, 0.90000, 1.10000, 0.90000
   63,'UNKNOWN12~51', 345.0000,2,  70,  70,   1,1.01999998,  83.755181, 1.10000, 0.90000, 1.10000, 0.90000
   64,'UNKNOWN12~52', 115.0000,1,  69,  69,   1,1.01297903,  96.776486, 1.10000, 0.90000, 1.10000, 0.90000
   65,'BERRY RD    ', 115.0000,1,  65,  65,   1,1.02161729,  97.107443, 1.10000, 0.90000, 1.10000, 0.90000
   66,'BAKER ST    ', 115.0000,1,  65,  65,   1,1.01849544,  95.110890, 1.10000, 0.90000, 1.10000, 0.90000
   67,'CUMMINS     ', 115.0000,1,  65,  65,   1,1.01862717,  95.165231, 1.10000, 0.90000, 1.10000, 0.90000
   68,'SILVER CREEK', 115.0000,1,  65,  65,   1,1.01814306,  97.198530, 1.10000, 0.90000, 1.10000, 0.90000
   69,'FALCONER    ', 115.0000,2,  65,  65,   1,1.01910448,  95.165968, 1.10000, 0.90000, 1.10000, 0.90000
   70,'UNKNOWN12~53', 115.0000,1,  65,  65,   1,1.01908553,  95.132213, 1.10000, 0.90000, 1.10000, 0.90000
   71,'WESTFIELD ~1', 115.0000,1,  65,  65,   1,1.02302468,  97.133609, 1.10000, 0.90000, 1.10000, 0.90000
   72,'UNKNOWN12~54', 115.0000,1,  65,  65,   1,1.02063811,  97.096938, 1.10000, 0.90000, 1.10000, 0.90000
   73,'LUDIUM      ', 115.0000,1,  65,  65,   1,1.02056718,  97.081611, 1.10000, 0.90000, 1.10000, 0.90000
   74,'BENNETT RD  ', 115.0000,1,  65,  65,   1,1.02029359,  97.024633, 1.10000, 0.90000, 1.10000, 0.90000
   75,'E DUNKIRK   ', 115.0000,1,  65,  65,   1,1.02001321,  96.966194, 1.10000, 0.90000, 1.10000, 0.90000
   76,'UNKNOWN12~55', 115.0000,1,  65,  65,   1,1.02000749,  96.964808, 1.10000, 0.90000, 1.10000, 0.90000
   77,'MOON SWITC~1', 115.0000,1,  65,  65,   1,1.02010274,  96.120173, 1.10000, 0.90000, 1.10000, 0.90000
   78,'HARTFIELD   ', 115.0000,1,  65,  65,   1,1.02177954,  96.661459, 1.10000, 0.90000, 1.10000, 0.90000
   79,'EAST 13TH ~1', 345.0000,1,  74,  74,   1,1.02001786,  59.334079, 1.10000, 0.90000, 1.10000, 0.90000
   80,'UNKNOWN12~56', 115.0000,1,  69,  69,   1,1.01966846,  97.321316, 1.10000, 0.90000, 1.10000, 0.90000
   81,'WESTOVER    ', 115.0000,2,  67,  67,   1,1.02540696,  87.731799, 1.10000, 0.90000, 1.10000, 0.90000
   82,'UNKNOWN12~57', 115.0000,2,  69,  69,   1,1.01999998,  86.557806, 1.10000, 0.90000, 1.10000, 0.90000
   83,'UNKNOWN12~58', 115.0000,2,  69,  69,   1,1.02102017,  96.558412, 1.10000, 0.90000, 1.10000, 0.90000
   84,'UNKNOWN12~59', 115.0000,2,  70,  70,   1,1.01999998,  83.360225, 1.10000, 0.90000, 1.10000, 0.90000
   85,'COLD SPRIN~1', 115.0000,1,  65,  65,   1,1.01992857,  94.721514, 1.10000, 0.90000, 1.10000, 0.90000
   86,'UNKNOWN12~60', 115.0000,1,  65,  65,   1,1.02051270,  96.929277, 1.10000, 0.90000, 1.10000, 0.90000
   87,'UNKNOWN12~61', 115.0000,1,  65,  65,   1,1.01982331,  96.961468, 1.10000, 0.90000, 1.10000, 0.90000
   88,'YORKSHIRE   ', 115.0000,1,  65,  65,   1,1.01958895,  96.790843, 1.10000, 0.90000, 1.10000, 0.90000
   89,'ARCADE      ', 115.0000,1,  65,  65,   1,1.01953483,  96.741427, 1.10000, 0.90000, 1.10000, 0.90000
   90,'BIXBY HILL  ', 115.0000,1,  65,  65,   1,1.01953197,  96.654355, 1.10000, 0.90000, 1.10000, 0.90000
   91,'UNKNOWN12~62', 115.0000,1,  65,  65,   1,1.01959717,  96.556492, 1.10000, 0.90000, 1.10000, 0.90000
   92,'UNKNOWN12~63', 115.0000,1,  66,  66,   1,1.01925182,  93.417856, 1.10000, 0.90000, 1.10000, 0.90000
   93,'UNKNOWN12~64', 115.0000,1,  66,  66,   1,1.01988578,  94.051131, 1.10000, 0.90000, 1.10000, 0.90000
   94,'UNKNOWN12~65', 115.0000,1,  66,  66,   1,1.01518059,  95.661020, 1.10000, 0.90000, 1.10000, 0.90000
   95,'UNKNOWN12~66', 115.0000,1,  66,  66,   1,1.01512194,  95.646643, 1.10000, 0.90000, 1.10000, 0.90000
   96,'UNKNOWN12~67', 115.0000,1,  66,  66,   1,1.01564109,  95.525844, 1.10000, 0.90000, 1.10000, 0.90000
   97,'UNKNOWN12~68', 115.0000,1,  66,  66,   1,1.01584983,  95.554039, 1.10000, 0.90000, 1.10000, 0.90000
   98,'UNKNOWN12~69', 115.0000,1,  66,  66,   1,1.01809418,  92.428797, 1.10000, 0.90000, 1.10000, 0.90000
   99,'UNKNOWN12~70', 115.0000,1,  66,  66,   1,1.01741540,  92.313121, 1.10000, 0.90000, 1.10000, 0.90000
  100,'UNKNOWN12~71', 115.0000,1,  66,  66,   1,1.01707804,  92.449636, 1.10000, 0.90000, 1.10000, 0.90000
  101,'UNKNOWN12~72', 115.0000,1,  65,  65,   1,1.01071501, 101.800882, 1.10000, 0.90000, 1.10000, 0.90000
  102,'N AKRON     ', 115.0000,1,  65,  65,   1,1.01072741, 101.806340, 1.10000, 0.90000, 1.10000, 0.90000
  103,'UNKNOWN12~73', 115.0000,1,  65,  65,   1,1.01104820, 101.938292, 1.10000, 0.90000, 1.10000, 0.90000
  104,'TONAWANDA   ', 115.0000,1,  65,  65,   1,1.01491344, 102.995933, 1.10000, 0.90000, 1.10000, 0.90000
  105,'GETZVILLE   ', 115.0000,1,  65,  65,   1,1.01459968, 102.527136, 1.10000, 0.90000, 1.10000, 0.90000
  106,'UNKNOWN12~74', 115.0000,1,  65,  65,   1,1.01466537, 102.501270, 1.10000, 0.90000, 1.10000, 0.90000
  107,'UNKNOWN12~75', 115.0000,1,  65,  65,   1,1.01504421, 102.553815, 1.10000, 0.90000, 1.10000, 0.90000
  108,'UNKNOWN12~76', 115.0000,1,  67,  67,   1,1.02214134,  89.830402, 1.10000, 0.90000, 1.10000, 0.90000
  109,'UNKNOWN12~77', 115.0000,1,  67,  67,   1,1.02118576,  90.111464, 1.10000, 0.90000, 1.10000, 0.90000
  110,'UNKNOWN12~78', 115.0000,1,  67,  67,   1,1.02067709,  88.280175, 1.10000, 0.90000, 1.10000, 0.90000
  111,'UNKNOWN12~79', 115.0000,1,  67,  67,   1,1.01907694,  89.508516, 1.10000, 0.90000, 1.10000, 0.90000
  112,'UNKNOWN12~80', 115.0000,1,  67,  67,   1,1.02168906,  87.253235, 1.10000, 0.90000, 1.10000, 0.90000
  113,'UNKNOWN12~81', 115.0000,1,  67,  67,   1,1.02074659,  87.221523, 1.10000, 0.90000, 1.10000, 0.90000
  114,'UNKNOWN12~82', 115.0000,1,  67,  67,   1,1.02062261,  87.384771, 1.10000, 0.90000, 1.10000, 0.90000
  115,'KATTELVILLE ', 115.0000,1,  67,  67,   1,1.02419066,  86.702776, 1.10000, 0.90000, 1.10000, 0.90000
  116,'UNKNOWN12~83', 115.0000,1,  67,  67,   1,1.02534151,  87.610235, 1.10000, 0.90000, 1.10000, 0.90000
  117,'NORTH ENDI~1', 115.0000,1,  67,  67,   1,1.02467084,  87.464151, 1.10000, 0.90000, 1.10000, 0.90000
  118,'UNKNOWN12~84', 115.0000,1,  67,  67,   1,1.02383840,  87.097855, 1.10000, 0.90000, 1.10000, 0.90000
  119,'UNKNOWN12~85', 115.0000,1,  67,  67,   1,1.02390063,  87.096653, 1.10000, 0.90000, 1.10000, 0.90000
  120,'UNKNOWN12~86', 115.0000,1,  67,  67,   1,1.02421725,  87.190404, 1.10000, 0.90000, 1.10000, 0.90000
  121,'UNKNOWN12~87', 115.0000,1,  67,  67,   1,1.02423203,  87.306039, 1.10000, 0.90000, 1.10000, 0.90000
  122,'ROBBLE AVE  ', 115.0000,1,  67,  67,   1,1.02475393,  87.499060, 1.10000, 0.90000, 1.10000, 0.90000
  123,'CASTLE GAR~1', 115.0000,1,  67,  67,   1,1.02408922,  87.244370, 1.10000, 0.90000, 1.10000, 0.90000
  124,'UNKNOWN12~88', 115.0000,1,  67,  67,   1,1.01881742,  90.435051, 1.10000, 0.90000, 1.10000, 0.90000
  125,'UNKNOWN12~89', 115.0000,1,  69,  69,   1,1.01889741, 103.252796, 1.10000, 0.90000, 1.10000, 0.90000
  126,'UNKNOWN12~90', 115.0000,1,  69,  69,   1,1.01892173, 103.232961, 1.10000, 0.90000, 1.10000, 0.90000
  127,'UNKNOWN12~91', 115.0000,2,  70,  70,   1,1.01999998,  86.062269, 1.10000, 0.90000, 1.10000, 0.90000
  128,'UNKNOWN12~92', 115.0000,2,  66,  66,   1,1.01999998, 109.246055, 1.10000, 0.90000, 1.10000, 0.90000
  129,'UNKNOWN12~93', 115.0000,1,  66,  66,   1,1.02081466, 100.260074, 1.10000, 0.90000, 1.10000, 0.90000
  130,'UNKNOWN12~94', 115.0000,1,  66,  66,   1,1.01804924, 100.806694, 1.10000, 0.90000, 1.10000, 0.90000
  131,'UNKNOWN12~95', 115.0000,1,  67,  67,   1,1.01945424,  92.774398, 1.10000, 0.90000, 1.10000, 0.90000
  132,'UNKNOWN12~96', 230.0000,1,  67,  67,   1,1.02129054,  95.037390, 1.10000, 0.90000, 1.10000, 0.90000
  133,'UNKNOWN12~97', 115.0000,1,  67,  67,   1,1.01950908,  89.572911, 1.10000, 0.90000, 1.10000, 0.90000
  134,'ANGOLA      ', 115.0000,1,  65,  65,   1,1.01590896,  97.584067, 1.10000, 0.90000, 1.10000, 0.90000
  135,'SPRINGVILLE ', 115.0000,1,  65,  65,   1,1.01860058,  98.254150, 1.10000, 0.90000, 1.10000, 0.90000
  136,'COBBLE HILL ', 115.0000,1,  65,  65,   1,1.01756811,  99.357498, 1.10000, 0.90000, 1.10000, 0.90000
  137,'BIG TREE    ', 115.0000,1,  65,  65,   1,1.01983011, 100.504048, 1.10000, 0.90000, 1.10000, 0.90000
  138,'UNKNOWN12~98', 230.0000,2,  65,  65,   1,1.01999998, 100.123921, 1.10000, 0.90000, 1.10000, 0.90000
  139,'PERRY #162  ', 115.0000,1,  65,  65,   1,1.01909149,  97.214567, 1.10000, 0.90000, 1.10000, 0.90000
  140,'SOUTH PERRY ', 115.0000,1,  65,  65,   1,1.01912272,  97.216726, 1.10000, 0.90000, 1.10000, 0.90000
  141,'UNKNOWN12~99', 115.0000,1,  65,  65,   1,1.01786387,  97.844673, 1.10000, 0.90000, 1.10000, 0.90000
  142,'UNKNOWN1~100', 115.0000,1,  65,  65,   1,1.01766074,  97.991590, 1.10000, 0.90000, 1.10000, 0.90000
  143,'UNKNOWN1~101', 115.0000,1,  65,  65,   1,1.02279150, 100.656027, 1.10000, 0.90000, 1.10000, 0.90000
  144,'UNKNOWN1~102', 115.0000,1,  65,  65,   1,1.02066743, 100.699432, 1.10000, 0.90000, 1.10000, 0.90000
  145,'ERIE ST     ', 115.0000,1,  65,  65,   1,1.01953888, 100.729601, 1.10000, 0.90000, 1.10000, 0.90000
  146,'DEPEW       ', 115.0000,1,  65,  65,   1,1.01929486, 100.652202, 1.10000, 0.90000, 1.10000, 0.90000
  147,'UNKNOWN1~103', 115.0000,1,  67,  67,   1,1.01763093,  90.645380, 1.10000, 0.90000, 1.10000, 0.90000
  148,'UNKNOWN1~104', 115.0000,1,  67,  67,   1,1.01875031,  91.363083, 1.10000, 0.90000, 1.10000, 0.90000
  149,'UNKNOWN1~105', 115.0000,1,  67,  67,   1,1.01936662,  91.009955, 1.10000, 0.90000, 1.10000, 0.90000
  150,'UNKNOWN1~106', 115.0000,1,  67,  67,   1,1.01997972,  91.037146, 1.10000, 0.90000, 1.10000, 0.90000
  151,'UNKNOWN1~107', 115.0000,1,  67,  67,   1,1.01999772,  91.032877, 1.10000, 0.90000, 1.10000, 0.90000
  152,'UNKNOWN1~108', 115.0000,1,  67,  67,   1,1.01544368,  92.690783, 1.10000, 0.90000, 1.10000, 0.90000
  153,'LABRADOR    ', 115.0000,1,  67,  67,   1,1.01448560,  90.428467, 1.10000, 0.90000, 1.10000, 0.90000
  154,'CORTLAND    ', 115.0000,1,  67,  67,   1,1.01317871,  91.541556, 1.10000, 0.90000, 1.10000, 0.90000
  155,'UNKNOWN1~109', 115.0000,1,  67,  67,   1,1.01298833,  91.499215, 1.10000, 0.90000, 1.10000, 0.90000
  156,'STARR RD    ', 115.0000,1,  67,  67,   1,1.01267374,  91.388717, 1.10000, 0.90000, 1.10000, 0.90000
  157,'SUNY        ', 115.0000,1,  67,  67,   1,1.01266444,  91.382904, 1.10000, 0.90000, 1.10000, 0.90000
  158,'UNKNOWN1~110', 115.0000,1,  67,  67,   1,1.01276684,  91.404440, 1.10000, 0.90000, 1.10000, 0.90000
  159,'DAVIS RD    ', 115.0000,1,  65,  65,   1,1.02195203, 100.516957, 1.10000, 0.90000, 1.10000, 0.90000
  160,'UNKNOWN1~111', 115.0000,1,  65,  65,   1,1.01914692, 100.548321, 1.10000, 0.90000, 1.10000, 0.90000
  161,'UNKNOWN1~112', 115.0000,2,  65,  65,   1,1.01659143,  99.498651, 1.10000, 0.90000, 1.10000, 0.90000
  162,'UNKNOWN1~113', 115.0000,1,  65,  65,   1,1.01657641,  99.495318, 1.10000, 0.90000, 1.10000, 0.90000
  163,'UNKNOWN1~114', 115.0000,1,  65,  65,   1,1.01657987,  99.497968, 1.10000, 0.90000, 1.10000, 0.90000
  164,'UNKNOWN1~115', 115.0000,1,  65,  65,   1,1.01657689,  99.497230, 1.10000, 0.90000, 1.10000, 0.90000
  165,'UNKNOWN1~116', 115.0000,1,  65,  65,   1,1.01658320, 100.788484, 1.10000, 0.90000, 1.10000, 0.90000
  166,'UNKNOWN1~117', 115.0000,1,  65,  65,   1,1.01674139, 100.828694, 1.10000, 0.90000, 1.10000, 0.90000
  167,'PINE GROVE  ', 115.0000,1,  67,  67,   1,1.00711536,  97.030624, 1.10000, 0.90000, 1.10000, 0.90000
  168,'BRIDGEPORT  ', 115.0000,1,  69,  69,   1,1.00667167,  93.410507, 1.10000, 0.90000, 1.10000, 0.90000
  169,'UNKNOWN1~118', 115.0000,1,  67,  67,   1,1.00620914,  96.429560, 1.10000, 0.90000, 1.10000, 0.90000
  170,'UNKNOWN1~119', 115.0000,1,  67,  67,   1,1.00596213,  96.240466, 1.10000, 0.90000, 1.10000, 0.90000
  171,'TEAL        ', 115.0000,1,  67,  67,   1,1.00601768,  96.247884, 1.10000, 0.90000, 1.10000, 0.90000
  172,'HOPKINS     ', 115.0000,1,  67,  67,   1,1.00657582,  96.910399, 1.10000, 0.90000, 1.10000, 0.90000
  173,'WOODARD     ', 115.0000,1,  67,  67,   1,1.00791693,  97.786582, 1.10000, 0.90000, 1.10000, 0.90000
  174,'BELMONT     ', 115.0000,1,  67,  67,   1,1.00716650,  97.582387, 1.10000, 0.90000, 1.10000, 0.90000
  175,'UNKNOWN1~120', 115.0000,1,  67,  67,   1,1.00704455,  97.583206, 1.10000, 0.90000, 1.10000, 0.90000
  176,'UNKNOWN1~121', 115.0000,1,  67,  67,   1,1.00625026,  97.422895, 1.10000, 0.90000, 1.10000, 0.90000
  177,'UNKNOWN1~122', 115.0000,1,  67,  67,   1,1.00638342,  97.460864, 1.10000, 0.90000, 1.10000, 0.90000
  178,'UNKNOWN1~123', 115.0000,1,  67,  67,   1,1.00631094,  97.439192, 1.10000, 0.90000, 1.10000, 0.90000
  179,'UNKNOWN1~124', 115.0000,1,  67,  67,   1,1.00640357,  97.459580, 1.10000, 0.90000, 1.10000, 0.90000
  180,'MILTON      ', 115.0000,1,  67,  67,   1,1.00741136,  97.684853, 1.10000, 0.90000, 1.10000, 0.90000
  181,'UNKNOWN1~125', 115.0000,1,  67,  67,   1,1.00627720,  97.430770, 1.10000, 0.90000, 1.10000, 0.90000
  182,'ANHEUSER B~1', 115.0000,1,  67,  67,   1,1.00528157,  99.346372, 1.10000, 0.90000, 1.10000, 0.90000
  183,'LYSANDER    ', 115.0000,1,  67,  67,   1,1.00530660,  99.352560, 1.10000, 0.90000, 1.10000, 0.90000
  184,'G E         ', 115.0000,1,  67,  67,   1,1.00861073,  97.979036, 1.10000, 0.90000, 1.10000, 0.90000
  185,'SORRELL HILL', 115.0000,1,  67,  67,   1,1.00585544,  99.153166, 1.10000, 0.90000, 1.10000, 0.90000
  186,'UNKNOWN125~1', 115.0000,1,  69,  69,   1,1.02256155,  81.812996, 1.10000, 0.90000, 1.10000, 0.90000
  187,'UNKNOWN125~2', 115.0000,1,  69,  69,   1,1.02180541,  82.714977, 1.10000, 0.90000, 1.10000, 0.90000
  188,'UNKNOWN125~3', 115.0000,1,  69,  69,   1,1.00271153,  77.777666, 1.10000, 0.90000, 1.10000, 0.90000
  189,'UNKNOWN125~4', 115.0000,1,  69,  69,   1,1.00717962,  79.560694, 1.10000, 0.90000, 1.10000, 0.90000
  190,'UNKNOWN125~5', 115.0000,1,  68,  68,   1,1.00096011,  87.994229, 1.10000, 0.90000, 1.10000, 0.90000
  191,'UNKNOWN125~6', 115.0000,1,  68,  68,   1,0.99202013,  81.234930, 1.10000, 0.90000, 1.10000, 0.90000
  192,'UNKNOWN125~7', 115.0000,1,  68,  68,   1,0.99866116,  83.897256, 1.10000, 0.90000, 1.10000, 0.90000
  193,'UNKNOWN125~8', 115.0000,1,  68,  68,   1,0.99402535,  83.507491, 1.10000, 0.90000, 1.10000, 0.90000
  194,'UNKNOWN125~9', 115.0000,1,  70,  70,   1,1.01750755,  82.270380, 1.10000, 0.90000, 1.10000, 0.90000
  195,'UNKNOWN12~10', 115.0000,1,  70,  70,   1,1.01747787,  82.262682, 1.10000, 0.90000, 1.10000, 0.90000
  196,'RISER125055 ', 115.0000,1,  70,  70,   1,1.01704490,  82.217828, 1.10000, 0.90000, 1.10000, 0.90000
  197,'UNKNOWN12~11', 115.0000,1,  66,  66,   1,1.02075803, 102.778091, 1.10000, 0.90000, 1.10000, 0.90000
  198,'HOGAN RD    ', 115.0000,1,  66,  66,   1,1.00926518, 100.871526, 1.10000, 0.90000, 1.10000, 0.90000
  199,'UNKNOWN12~12', 115.0000,1,  66,  66,   1,1.01520777, 101.420448, 1.10000, 0.90000, 1.10000, 0.90000
  200,'STATION #52 ', 115.0000,1,  66,  66,   1,1.01219451, 102.016928, 1.10000, 0.90000, 1.10000, 0.90000
...
0 / END OF BUS DATA, BEGIN LOAD DATA
    1,'1 ',1,  66,  66,    72.139,     0.000,     0.000,     0.000,     0.000,     0.000,   1,1, 0
    2,'1 ',1,  70,  70,     0.997,     0.000,     0.000,     0.000,     0.000,     0.000,   1,1, 0
    3,'1 ',1,  70,  70,     2.217,     0.000,     0.000,     0.000,     0.000,     0.000,   1,1, 0
    4,'1 ',1,  68,  68,    75.453,     0.000,     0.000,     0.000,     0.000,     0.000,   1,1, 0
    5,'1 ',1,  70,  70,     2.217,     0.000,     0.000,     0.000,     0.000,     0.000,   1,1, 0
    6,'1 ',1,  70,  70,     2.217,     0.000,     0.000,     0.000,     0.000,     0.000,   1,1, 0
    7,'1 ',1,  70,  70,     4.435,     0.000,     0.000,     0.000,     0.000,     0.000,   1,1, 0
    8,'1 ',1,  70,  70,     4.435,     0.000,     0.000,     0.000,     0.000,     0.000,   1,1, 0
    9,'1 ',1,  71,  71,    19.561,     0.000,     0.000,     0.000,     0.000,     0.000,   1,1, 0
   10,'1 ',1,  68,  68,    15.091,     0.000,     0.000,     0.000,     0.000,     0.000,   1,1, 0
   11,'1 ',1,  70,  70,     4.435,     0.000,     0.000,     0.000,     0.000,     0.000,   1,1, 0
   12,'1 ',1,  70,  70,     2.217,     0.000,     0.000,     0.000,     0.000,     0.000,   1,1, 0
   13,'1 ',1,  70,  70,     8.870,     0.000,     0.000,     0.000,     0.000,     0.000,   1,1, 0
   14,'1 ',1,  69,  69,     2.733,     0.000,     0.000,     0.000,     0.000,     0.000,   1,1, 0
   15,'1 ',1,  69,  69,     2.733,     0.000,     0.000,     0.000,     0.000,     0.000,   1,1, 0
   16,'1 ',1,  69,  69,     6.834,     0.000,     0.000,     0.000,     0.000,     0.000,   1,1, 0
   17,'1 ',1,  75,  75,    18.937,     0.000,     0.000,     0.000,     0.000,     0.000,   1,1, 0
   18,'1 ',1,  75,  75,    17.753,     0.000,     0.000,     0.000,     0.000,     0.000,   1,1, 0
   19,'1 ',1,  75,  75,    32.903,     0.000,     0.000,     0.000,     0.000,     0.000,   1,1, 0
   19,'EX',1, 101, 101,     0.000,     0.000,     0.000,     0.000,     0.000,     0.000,   1,1, 0
   20,'1 ',1,  69,  69,     5.467,     0.000,     0.000,     0.000,     0.000,     0.000,   1,1, 0
   21,'1 ',1,  69,  69,     5.467,     0.000,     0.000,     0.000,     0.000,     0.000,   1,1, 0
   22,'1 ',1,  70,  70,     0.997,     0.000,     0.000,     0.000,     0.000,     0.000,   1,1, 0
   23,'1 ',1,  69,  69,     6.834,     0.000,     0.000,     0.000,     0.000,     0.000,   1,1, 0
   24,'1 ',1,  67,  67,    14.815,     0.000,     0.000,     0.000,     0.000,     0.000,   1,1, 0
   25,'1 ',1,  69,  69,     1.367,     0.000,     0.000,     0.000,     0.000,     0.000,   1,1, 0
   27,'1 ',1,  67,  67,     5.926,     0.000,     0.000,     0.000,     0.000,     0.000,   1,1, 0
   28,'1 ',1,  69,  69,     1.367,     0.000,     0.000,     0.000,     0.000,     0.000,   1,1, 0
   29,'1 ',1,  67,  67,    11.852,     0.000,     0.000,     0.000,     0.000,     0.000,   1,1, 0
   30,'1 ',1,  67,  67,     5.926,     0.000,     0.000,     0.000,     0.000,     0.000,   1,1, 0
   31,'1 ',1,  70,  70,     2.217,     0.000,     0.000,     0.000,     0.000,     0.000,   1,1, 0
   32,'1 ',1,  70,  70,     2.217,     0.000,     0.000,     0.000,     0.000,     0.000,   1,1, 0
   33,'1 ',1,  65,  65,     3.476,     0.000,     0.000,     0.000,     0.000,     0.000,   1,1, 0
   34,'1 ',1,  67,  67,     5.926,     0.000,     0.000,     0.000,     0.000,     0.000,   1,1, 0
   35,'1 ',1,  68,  68,    35.908,     0.000,     0.000,     0.000,     0.000,     0.000,   1,1, 0
   36,'1 ',1,  68,  68,    35.908,     0.000,     0.000,     0.000,     0.000,     0.000,   1,1, 0
   37,'1 ',1,  65,  65,     5.215,     0.000,     0.000,     0.000,     0.000,     0.000,   1,1, 0
   38,'1 ',1,  65,  65,     3.476,     0.000,     0.000,     0.000,     0.000,     0.000,   1,1, 0
   40,'1 ',1,  69,  69,     1.367,     0.000,     0.000,     0.000,     0.000,     0.000,   1,1, 0
   41,'1 ',1,  65,  65,     3.476,     0.000,     0.000,     0.000,     0.000,     0.000,   1,1, 0
   42,'1 ',1,  65,  65,    12.168,     0.000,     0.000,     0.000,     0.000,     0.000,   1,1, 0
   43,'1 ',1,  65,  65,     3.476,     0.000,     0.000,     0.000,     0.000,     0.000,   1,1, 0
   44,'1 ',1,  65,  65,     1.738,     0.000,     0.000,     0.000,     0.000,     0.000,   1,1, 0
   45,'1 ',1,  65,  65,     5.215,     0.000,     0.000,     0.000,     0.000,     0.000,   1,1, 0
   46,'1 ',1,  65,  65,     3.476,     0.000,     0.000,     0.000,     0.000,     0.000,   1,1, 0
   47,'1 ',1,  65,  65,     1.738,     0.000,     0.000,     0.000,     0.000,     0.000,   1,1, 0
   48,'1 ',1,  65,  65,     6.953,     0.000,     0.000,     0.000,     0.000,     0.000,   1,1, 0
   49,'1 ',1,  69,  69,     2.733,     0.000,     0.000,     0.000,     0.000,     0.000,   1,1, 0
   50,'1 ',1,  69,  69,     2.733,     0.000,     0.000,     0.000,     0.000,     0.000,   1,1, 0
   51,'1 ',1,  67,  67,     2.963,     0.000,     0.000,     0.000,     0.000,     0.000,   1,1, 0
   52,'1 ',1,  67,  67,     2.963,     0.000,     0.000,     0.000,     0.000,     0.000,   1,1, 0
   53,'1 ',1,  67,  67,     5.926,     0.000,     0.000,     0.000,     0.000,     0.000,   1,1, 0
   55,'1 ',1,  67,  67,     8.889,     0.000,     0.000,     0.000,     0.000,     0.000,   1,1, 0
   56,'1 ',1,  67,  67,     5.926,     0.000,     0.000,     0.000,     0.000,     0.000,   1,1, 0
   57,'1 ',1,  67,  67,     5.926,     0.000,     0.000,     0.000,     0.000,     0.000,   1,1, 0
   58,'1 ',1,  67,  67,     4.445,     0.000,     0.000,     0.000,     0.000,     0.000,   1,1, 0
   59,'1 ',1,  69,  69,     9.567,     0.000,     0.000,     0.000,     0.000,     0.000,   1,1, 0
   60,'1 ',1,  69,  69,     1.229,     0.000,     0.000,     0.000,     0.000,     0.000,   1,1, 0
   61,'1 ',1,  67,  67,     8.889,     0.000,     0.000,     0.000,     0.000,     0.000,   1,1, 0
   64,'1 ',1,  69,  69,     1.367,     0.000,     0.000,     0.000,     0.000,     0.000,   1,1, 0
   65,'1 ',1,  65,  65,     3.476,     0.000,     0.000,     0.000,     0.000,     0.000,   1,1, 0
   66,'1 ',1,  65,  65,     3.476,     0.000,     0.000,     0.000,     0.000,     0.000,   1,1, 0
   67,'1 ',1,  65,  65,     1.738,     0.000,     0.000,     0.000,     0.000,     0.000,   1,1, 0
   68,'1 ',1,  65,  65,     3.476,     0.000,     0.000,     0.000,     0.000,     0.000,   1,1, 0
   69,'1 ',1,  65,  65,     8.691,     0.000,     0.000,     0.000,     0.000,     0.000,   1,1, 0
   70,'1 ',1,  65,  65,     3.476,     0.000,     0.000,     0.000,     0.000,     0.000,   1,1, 0
   71,'1 ',1,  65,  65,     5.215,     0.000,     0.000,     0.000,     0.000,     0.000,   1,1, 0
   72,'1 ',1,  65,  65,     1.738,     0.000,     0.000,     0.000,     0.000,     0.000,   1,1, 0
   73,'1 ',1,  65,  65,     3.476,     0.000,     0.000,     0.000,     0.000,     0.000,   1,1, 0
   74,'1 ',1,  65,  65,     6.953,     0.000,     0.000,     0.000,     0.000,     0.000,   1,1, 0
   75,'1 ',1,  65,  65,     1.738,     0.000,     0.000,     0.000,     0.000,     0.000,   1,1, 0
   76,'1 ',1,  65,  65,     3.476,     0.000,     0.000,     0.000,     0.000,     0.000,   1,1, 0
   77,'1 ',1,  65,  65,     8.691,     0.000,     0.000,     0.000,     0.000,     0.000,   1,1, 0
   78,'1 ',1,  65,  65,     3.476,     0.000,     0.000,     0.000,     0.000,     0.000,   1,1, 0
   80,'1 ',1,  69,  69,     2.733,     0.000,     0.000,     0.000,     0.000,     0.000,   1,1, 0
   81,'1 ',1,  67,  67,    14.815,     0.000,     0.000,     0.000,     0.000,     0.000,   1,1, 0
   82,'1 ',1,  69,  69,     1.367,     0.000,     0.000,     0.000,     0.000,     0.000,   1,1, 0
   83,'1 ',1,  69,  69,     4.100,     0.000,     0.000,     0.000,     0.000,     0.000,   1,1, 0
   84,'1 ',1,  70,  70,     2.217,     0.000,     0.000,     0.000,     0.000,     0.000,   1,1, 0
   85,'1 ',1,  65,  65,     1.738,     0.000,     0.000,     0.000,     0.000,     0.000,   1,1, 0
   86,'1 ',1,  65,  65,     3.476,     0.000,     0.000,     0.000,     0.000,     0.000,   1,1, 0
   87,'1 ',1,  65,  65,     5.215,     0.000,     0.000,     0.000,     0.000,     0.000,   1,1, 0
   88,'1 ',1,  65,  65,     3.476,     0.000,     0.000,     0.000,     0.000,     0.000,   1,1, 0
   89,'1 ',1,  65,  65,     1.738,     0.000,     0.000,     0.000,     0.000,     0.000,   1,1, 0
   90,'1 ',1,  65,  65,     3.476,     0.000,     0.000,     0.000,     0.000,     0.000,   1,1, 0
   91,'1 ',1,  65,  65,     3.476,     0.000,     0.000,     0.000,     0.000,     0.000,   1,1, 0
   92,'1 ',1,  66,  66,     9.017,     0.000,     0.000,     0.000,     0.000,     0.000,   1,1, 0
   93,'1 ',1,  66,  66,     9.017,     0.000,     0.000,     0.000,     0.000,     0.000,   1,1, 0
   94,'1 ',1,  66,  66,     9.017,     0.000,     0.000,     0.000,     0.000,     0.000,   1,1, 0
   95,'1 ',1,  66,  66,     4.509,     0.000,     0.000,     0.000,     0.000,     0.000,   1,1, 0
   96,'1 ',1,  66,  66,     4.509,     0.000,     0.000,     0.000,     0.000,     0.000,   1,1, 0
   97,'1 ',1,  66,  66,     9.017,     0.000,     0.000,     0.000,     0.000,     0.000,   1,1, 0
   98,'1 ',1,  66,  66,     9.017,     0.000,     0.000,     0.000,     0.000,     0.000,   1,1, 0
   99,'1 ',1,  66,  66,     9.017,     0.000,     0.000,     0.000,     0.000,     0.000,   1,1, 0
  100,'1 ',1,  66,  66,     4.509,     0.000,     0.000,     0.000,     0.000,     0.000,   1,1, 0
  101,'1 ',1,  65,  65,     3.476,     0.000,     0.000,     0.000,     0.000,     0.000,   1,1, 0
  102,'1 ',1,  65,  65,     3.476,     0.000,     0.000,     0.000,     0.000,     0.000,   1,1, 0
  103,'1 ',1,  65,  65,     1.738,     0.000,     0.000,     0.000,     0.000,     0.000,   1,1, 0
  104,'1 ',1,  65,  65,     3.476,     0.000,     0.000,     0.000,     0.000,     0.000,   1,1, 0
  105,'1 ',1,  65,  65,    13.906,     0.000,     0.000,     0.000,     0.000,     0.000,   1,1, 0
  106,'1 ',1,  65,  65,     3.476,     0.000,     0.000,     0.000,     0.000,     0.000,   1,1, 0
  107,'1 ',1,  65,  65,     8.691,     0.000,     0.000,     0.000,     0.000,     0.000,   1,1, 0
  108,'1 ',1,  67,  67,     5.926,     0.000,     0.000,     0.000,     0.000,     0.000,   1,1, 0
  109,'1 ',1,  67,  67,     5.926,     0.000,     0.000,     0.000,     0.000,     0.000,   1,1, 0
  110,'1 ',1,  67,  67,     8.889,     0.000,     0.000,     0.000,     0.000,     0.000,   1,1, 0
  111,'1 ',1,  67,  67,     5.926,     0.000,     0.000,     0.000,     0.000,     0.000,   1,1, 0
  112,'1 ',1,  67,  67,     5.926,     0.000,     0.000,     0.000,     0.000,     0.000,   1,1, 0
  113,'1 ',1,  67,  67,     5.926,     0.000,     0.000,     0.000,     0.000,     0.000,   1,1, 0
  114,'1 ',1,  67,  67,     5.926,     0.000,     0.000,     0.000,     0.000,     0.000,   1,1, 0
  115,'1 ',1,  67,  67,     5.926,     0.000,     0.000,     0.000,     0.000,     0.000,   1,1, 0
  116,'1 ',1,  67,  67,     5.926,     0.000,     0.000,     0.000,     0.000,     0.000,   1,1, 0
  117,'1 ',1,  67,  67,     8.889,     0.000,     0.000,     0.000,     0.000,     0.000,   1,1, 0
  118,'1 ',1,  67,  67,     5.926,     0.000,     0.000,     0.000,     0.000,     0.000,   1,1, 0
  119,'1 ',1,  67,  67,     5.926,     0.000,     0.000,     0.000,     0.000,     0.000,   1,1, 0
  120,'1 ',1,  67,  67,     5.926,     0.000,     0.000,     0.000,     0.000,     0.000,   1,1, 0
  121,'1 ',1,  67,  67,     5.926,     0.000,     0.000,     0.000,     0.000,     0.000,   1,1, 0
  122,'1 ',1,  67,  67,     5.926,     0.000,     0.000,     0.000,     0.000,     0.000,   1,1, 0
  123,'1 ',1,  67,  67,     5.926,     0.000,     0.000,     0.000,     0.000,     0.000,   1,1, 0
  124,'1 ',1,  67,  67,    17.778,     0.000,     0.000,     0.000,     0.000,     0.000,   1,1, 0
  125,'1 ',1,  69,  69,     1.367,     0.000,     0.000,     0.000,     0.000,     0.000,   1,1, 0
  126,'1 ',1,  69,  69,     1.367,     0.000,     0.000,     0.000,     0.000,     0.000,   1,1, 0
  127,'1 ',1,  70,  70,    22.175,     0.000,     0.000,     0.000,     0.000,     0.000,   1,1, 0
  128,'1 ',1,  66,  66,    27.052,     0.000,     0.000,     0.000,     0.000,     0.000,   1,1, 0
  129,'1 ',1,  66,  66,    13.526,     0.000,     0.000,     0.000,     0.000,     0.000,   1,1, 0
  130,'1 ',1,  66,  66,     4.509,     0.000,     0.000,     0.000,     0.000,     0.000,   1,1, 0
  131,'1 ',1,  67,  67,    17.778,     0.000,     0.000,     0.000,     0.000,     0.000,   1,1, 0
  133,'1 ',1,  67,  67,     8.889,     0.000,     0.000,     0.000,     0.000,     0.000,   1,1, 0
  134,'1 ',1,  65,  65,     8.691,     0.000,     0.000,     0.000,     0.000,     0.000,   1,1, 0
  135,'1 ',1,  65,  65,     3.476,     0.000,     0.000,     0.000,     0.000,     0.000,   1,1, 0
  136,'1 ',1,  65,  65,     3.476,     0.000,     0.000,     0.000,     0.000,     0.000,   1,1, 0
  137,'1 ',1,  65,  65,     3.476,     0.000,     0.000,     0.000,     0.000,     0.000,   1,1, 0
  139,'1 ',1,  65,  65,     5.215,     0.000,     0.000,     0.000,     0.000,     0.000,   1,1, 0
  140,'1 ',1,  65,  65,     7.406,     0.000,     0.000,     0.000,     0.000,     0.000,   1,1, 0
  141,'1 ',1,  65,  65,     3.476,     0.000,     0.000,     0.000,     0.000,     0.000,   1,1, 0
  142,'1 ',1,  65,  65,     5.215,     0.000,     0.000,     0.000,     0.000,     0.000,   1,1, 0
  143,'1 ',1,  65,  65,     3.476,     0.000,     0.000,     0.000,     0.000,     0.000,   1,1, 0
  144,'1 ',1,  65,  65,     3.476,     0.000,     0.000,     0.000,     0.000,     0.000,   1,1, 0
  145,'1 ',1,  65,  65,     5.215,     0.000,     0.000,     0.000,     0.000,     0.000,   1,1, 0
  146,'1 ',1,  65,  65,     1.738,     0.000,     0.000,     0.000,     0.000,     0.000,   1,1, 0
  147,'1 ',1,  67,  67,     2.963,     0.000,     0.000,     0.000,     0.000,     0.000,   1,1, 0
  148,'1 ',1,  67,  67,     2.963,     0.000,     0.000,     0.000,     0.000,     0.000,   1,1, 0
  149,'1 ',1,  67,  67,     8.889,     0.000,     0.000,     0.000,     0.000,     0.000,   1,1, 0
  150,'1 ',1,  67,  67,     5.926,     0.000,     0.000,     0.000,     0.000,     0.000,   1,1, 0
  151,'1 ',1,  67,  67,     2.963,     0.000,     0.000,     0.000,     0.000,     0.000,   1,1, 0
  152,'1 ',1,  67,  67,     5.926,     0.000,     0.000,     0.000,     0.000,     0.000,   1,1, 0
  153,'1 ',1,  67,  67,     2.963,     0.000,     0.000,     0.000,     0.000,     0.000,   1,1, 0
  154,'1 ',1,  67,  67,     8.889,     0.000,     0.000,     0.000,     0.000,     0.000,   1,1, 0
  155,'1 ',1,  67,  67,     2.963,     0.000,     0.000,     0.000,     0.000,     0.000,   1,1, 0
  156,'1 ',1,  67,  67,     5.926,     0.000,     0.000,     0.000,     0.000,     0.000,   1,1, 0
  157,'1 ',1,  67,  67,     2.963,     0.000,     0.000,     0.000,     0.000,     0.000,   1,1, 0
  158,'1 ',1,  67,  67,     2.963,     0.000,     0.000,     0.000,     0.000,     0.000,   1,1, 0
  159,'1 ',1,  65,  65,     3.476,     0.000,     0.000,     0.000,     0.000,     0.000,   1,1, 0
  160,'1 ',1,  65,  65,     1.738,     0.000,     0.000,     0.000,     0.000,     0.000,   1,1, 0
  161,'1 ',1,  65,  65,     3.476,     0.000,     0.000,     0.000,     0.000,     0.000,   1,1, 0
  162,'1 ',1,  65,  65,     6.953,     0.000,     0.000,     0.000,     0.000,     0.000,   1,1, 0
  163,'1 ',1,  65,  65,     8.691,     0.000,     0.000,     0.000,     0.000,     0.000,   1,1, 0
  164,'1 ',1,  65,  65,     1.738,     0.000,     0.000,     0.000,     0.000,     0.000,   1,1, 0
  165,'1 ',1,  65,  65,     1.738,     0.000,     0.000,     0.000,     0.000,     0.000,   1,1, 0
  166,'1 ',1,  65,  65,     1.738,     0.000,     0.000,     0.000,     0.000,     0.000,   1,1, 0
  167,'1 ',1,  67,  67,     5.926,     0.000,     0.000,     0.000,     0.000,     0.000,   1,1, 0
  168,'1 ',1,  69,  69,     1.367,     0.000,     0.000,     0.000,     0.000,     0.000,   1,1, 0
  169,'1 ',1,  67,  67,     5.926,     0.000,     0.000,     0.000,     0.000,     0.000,   1,1, 0
  170,'1 ',1,  67,  67,     5.926,     0.000,     0.000,     0.000,     0.000,     0.000,   1,1, 0
  171,'1 ',1,  67,  67,    23.705,     0.000,     0.000,     0.000,     0.000,     0.000,   1,1, 0
  172,'1 ',1,  67,  67,     5.926,     0.000,     0.000,     0.000,     0.000,     0.000,   1,1, 0
  173,'1 ',1,  67,  67,     8.889,     0.000,     0.000,     0.000,     0.000,     0.000,   1,1, 0
  174,'1 ',1,  67,  67,     5.926,     0.000,     0.000,     0.000,     0.000,     0.000,   1,1, 0
  175,'1 ',1,  67,  67,     5.926,     0.000,     0.000,     0.000,     0.000,     0.000,   1,1, 0
  176,'1 ',1,  67,  67,     5.926,     0.000,     0.000,     0.000,     0.000,     0.000,   1,1, 0
  177,'1 ',1,  67,  67,     2.963,     0.000,     0.000,     0.000,     0.000,     0.000,   1,1, 0
  178,'1 ',1,  67,  67,     8.889,     0.000,     0.000,     0.000,     0.000,     0.000,   1,1, 0
  179,'1 ',1,  67,  67,     5.926,     0.000,     0.000,     0.000,     0.000,     0.000,   1,1, 0
  180,'1 ',1,  67,  67,     5.926,     0.000,     0.000,     0.000,     0.000,     0.000,   1,1, 0
  181,'1 ',1,  67,  67,     5.926,     0.000,     0.000,     0.000,     0.000,     0.000,   1,1, 0
  182,'1 ',1,  67,  67,     5.926,     0.000,     0.000,     0.000,     0.000,     0.000,   1,1, 0
  183,'1 ',1,  67,  67,     5.926,     0.000,     0.000,     0.000,     0.000,     0.000,   1,1, 0
  184,'1 ',1,  67,  67,     5.926,     0.000,     0.000,     0.000,     0.000,     0.000,   1,1, 0
  185,'1 ',1,  67,  67,     5.926,     0.000,     0.000,     0.000,     0.000,     0.000,   1,1, 0
  186,'1 ',1,  69,  69,     4.100,     0.000,     0.000,     0.000,     0.000,     0.000,   1,1, 0
  187,'1 ',1,  69,  69,     2.733,     0.000,     0.000,     0.000,     0.000,     0.000,   1,1, 0
  188,'1 ',1,  69,  69,     2.733,     0.000,     0.000,     0.000,     0.000,     0.000,   1,1, 0
  189,'1 ',1,  69,  69,     1.367,     0.000,     0.000,     0.000,     0.000,     0.000,   1,1, 0
  190,'1 ',1,  68,  68,    30.181,     0.000,     0.000,     0.000,     0.000,     0.000,   1,1, 0
  191,'1 ',1,  68,  68,    30.181,     0.000,     0.000,     0.000,     0.000,     0.000,   1,1, 0
  192,'1 ',1,  68,  68,    45.272,     0.000,     0.000,     0.000,     0.000,     0.000,   1,1, 0
  193,'1 ',1,  68,  68,    60.362,     0.000,     0.000,     0.000,     0.000,     0.000,   1,1, 0
  194,'1 ',1,  70,  70,    13.305,     0.000,     0.000,     0.000,     0.000,     0.000,   1,1, 0
  195,'1 ',1,  70,  70,     4.435,     0.000,     0.000,     0.000,     0.000,     0.000,   1,1, 0
  196,'1 ',1,  70,  70,     4.435,     0.000,     0.000,     0.000,     0.000,     0.000,   1,1, 0
  197,'1 ',1,  66,  66,     9.017,     0.000,     0.000,     0.000,     0.000,     0.000,   1,1, 0
  198,'1 ',1,  66,  66,     9.017,     0.000,     0.000,     0.000,     0.000,     0.000,   1,1, 0
  199,'1 ',1,  66,  66,     9.017,     0.000,     0.000,     0.000,     0.000,     0.000,   1,1, 0
  200,'1 ',1,  66,  66,    13.526,     0.000,     0.000,     0.000,     0.000,     0.000,   1,1, 0
  201,'1 ',1,  66,  66,     9.017,     0.000,     0.000,     0.000,     0.000,     0.000,   1,1, 0
  202,'1 ',1,  67,  67,     5.926,     0.000,     0.000,     0.000,     0.000,     0.000,   1,1, 0
  203,'1 ',1,  69,  69,     2.733,     0.000,     0.000,     0.000,     0.000,     0.000,   1,1, 0
  204,'1 ',1,  69,  69,     4.100,     0.000,     0.000,     0.000,     0.000,     0.000,   1,1, 0
  205,'1 ',1,  69,  69,     5.467,     0.000,     0.000,     0.000,     0.000,     0.000,   1,1, 0
  206,'1 ',1,  69,  69,     2.733,     0.000,     0.000,     0.000,     0.000,     0.000,   1,1, 0
  207,'1 ',1,  67,  67,     2.963,     0.000,     0.000,     0.000,     0.000,     0.000,   1,1, 0
...
0 / END OF LOAD DATA, BEGIN FIXED SHUNT DATA
0 / END OF FIXED SHUNT DATA, BEGIN GENERATOR DATA
    6,'1 ',     2.761,    -0.413,     1.800,    -1.500,1.02000,    0,   100.000,   0.00000,   1.00000,   0.00000,   0.00000,1.00000,1,  100.0,     2.800,     1.000,   1,1.0000,   0,1.0000,   0,1.0000,   0,1.0000,0, 1.0000
    6,'2 ',     2.761,    -0.413,     1.800,    -1.500,1.02000,    0,   100.000,   0.00000,   1.00000,   0.00000,   0.00000,1.00000,1,  100.0,     2.800,     1.000,   1,1.0000,   0,1.0000,   0,1.0000,   0,1.0000,0, 1.0000
    6,'3 ',     2.958,    -0.413,     2.000,    -1.700,1.02000,    0,   100.000,   0.00000,   1.00000,   0.00000,   0.00000,1.00000,1,  100.0,     3.000,     1.000,   1,1.0000,   0,1.0000,   0,1.0000,   0,1.0000,0, 1.0000
    6,'4 ',     2.958,    -0.413,     2.000,    -1.700,1.02000,    0,   100.000,   0.00000,   1.00000,   0.00000,   0.00000,1.00000,1,  100.0,     3.000,     1.000,   1,1.0000,   0,1.0000,   0,1.0000,   0,1.0000,0, 1.0000
   15,'1 ',     7.888,    -2.758,     5.200,    -4.400,1.02000,    0,   100.000,   0.00000,   1.00000,   0.00000,   0.00000,1.00000,1,  100.0,     8.000,     7.000,   1,1.0000,   0,1.0000,   0,1.0000,   0,1.0000,0, 1.0000
   15,'2 ',     7.888,    -2.758,     5.200,    -4.400,1.02000,    0,   100.000,   0.00000,   1.00000,   0.00000,   0.00000,1.00000,1,  100.0,     8.000,     7.000,   1,1.0000,   0,1.0000,   0,1.0000,   0,1.0000,0, 1.0000
   17,'1 ',     0.000,    -9.900,    11.700,    -9.900,1.01000,    0,   100.000,   0.00000,   1.00000,   0.00000,   0.00000,1.00000,0,  100.0,    18.000,    10.500,   1,1.0000,   0,1.0000,   0,1.0000,   0,1.0000,0, 1.0000
   17,'10',     0.000,   -23.000,    27.200,   -23.000,1.01000,    0,   100.000,   0.00000,   1.00000,   0.00000,   0.00000,1.00000,0,  100.0,    41.800,    30.000,   1,1.0000,   0,1.0000,   0,1.0000,   0,1.0000,0, 1.0000
   17,'11',     0.000,   -23.000,    27.200,   -23.000,1.01000,    0,   100.000,   0.00000,   1.00000,   0.00000,   0.00000,1.00000,0,  100.0,    41.800,    30.000,   1,1.0000,   0,1.0000,   0,1.0000,   0,1.0000,0, 1.0000
   17,'12',     0.000,     0.000,   122.200,  -103.400,1.01000,    0,   100.000,   0.00000,   1.00000,   0.00000,   0.00000,1.00000,0,  100.0,   188.000,    15.000,   1,1.0000,   0,1.0000,   0,1.0000,   0,1.0000,0, 1.0000
   17,'13',     0.000,     0.000,   122.200,  -103.400,1.01000,    0,   100.000,   0.00000,   1.00000,   0.00000,   0.00000,1.00000,0,  100.0,   188.000,    15.000,   1,1.0000,   0,1.0000,   0,1.0000,   0,1.0000,0, 1.0000
   17,'2 ',     0.000,    -9.900,    11.700,    -9.900,1.01000,    0,   100.000,   0.00000,   1.00000,   0.00000,   0.00000,1.00000,0,  100.0,    18.000,    11.400,   1,1.0000,   0,1.0000,   0,1.0000,   0,1.0000,0, 1.0000
   17,'3 ',     0.000,    -9.900,    11.700,    -9.900,1.01000,    0,   100.000,   0.00000,   1.00000,   0.00000,   0.00000,1.00000,0,  100.0,    18.000,    11.000,   1,1.0000,   0,1.0000,   0,1.0000,   0,1.0000,0, 1.0000
   17,'4 ',     0.000,    -9.900,    11.700,    -9.900,1.01000,    0,   100.000,   0.00000,   1.00000,   0.00000,   0.00000,1.00000,0,  100.0,    18.000,    11.200,   1,1.0000,   0,1.0000,   0,1.0000,   0,1.0000,0, 1.0000
   17,'5 ',     0.000,    -9.900,    11.700,    -9.900,1.01000,    0,   100.000,   0.00000,   1.00000,   0.00000,   0.00000,1.00000,0,  100.0,    18.000,    11.400,   1,1.0000,   0,1.0000,   0,1.0000,   0,1.0000,0, 1.0000
   17,'6 ',     0.000,    -9.900,    11.700,    -9.900,1.01000,    0,   100.000,   0.00000,   1.00000,   0.00000,   0.00000,1.00000,0,  100.0,    18.000,    10.700,   1,1.0000,   0,1.0000,   0,1.0000,   0,1.0000,0, 1.0000
   17,'7 ',     0.000,    -9.900,    11.700,    -9.900,1.01000,    0,   100.000,   0.00000,   1.00000,   0.00000,   0.00000,1.00000,0,  100.0,    18.000,     9.000,   1,1.0000,   0,1.0000,   0,1.0000,   0,1.0000,0, 1.0000
   17,'8 ',     0.000,   -23.000,    27.200,   -23.000,1.01000,    0,   100.000,   0.00000,   1.00000,   0.00000,   0.00000,1.00000,0,  100.0,    41.800,    29.800,   1,1.0000,   0,1.0000,   0,1.0000,   0,1.0000,0, 1.0000
   17,'9 ',     0.000,     0.000,    27.200,   -23.000,1.01000,    0,   100.000,   0.00000,   1.00000,   0.00000,   0.00000,1.00000,0,  100.0,    41.800,    30.000,   1,1.0000,   0,1.0000,   0,1.0000,   0,1.0000,0, 1.0000
   18,'1 ',     0.000,    -8.800,    10.400,    -8.800,1.01000,    0,   100.000,   0.00000,   1.00000,   0.00000,   0.00000,1.00000,0,  100.0,    16.000,    10.000,   1,1.0000,   0,1.0000,   0,1.0000,   0,1.0000,0, 1.0000
   18,'2 ',     0.000,     0.000,    34.500,   -29.200,1.01000,    0,   100.000,   0.00000,   1.00000,   0.00000,   0.00000,1.00000,0,  100.0,    53.000,    37.000,   1,1.0000,   0,1.0000,   0,1.0000,   0,1.0000,0, 1.0000
   18,'3 ',     0.000,     0.000,    34.500,   -29.200,1.01000,    0,   100.000,   0.00000,   1.00000,   0.00000,   0.00000,1.00000,0,  100.0,    53.000,    37.000,   1,1.0000,   0,1.0000,   0,1.0000,   0,1.0000,0, 1.0000
   18,'4 ',     0.000,   -30.300,    35.800,   -30.300,1.01000,    0,   100.000,   0.00000,   1.00000,   0.00000,   0.00000,1.00000,0,  100.0,    55.000,    40.000,   1,1.0000,   0,1.0000,   0,1.0000,   0,1.0000,0, 1.0000
   18,'5 ',     0.000,     0.000,    35.800,   -30.300,1.01000,    0,   100.000,   0.00000,   1.00000,   0.00000,   0.00000,1.00000,0,  100.0,    55.000,    44.100,   1,1.0000,   0,1.0000,   0,1.0000,   0,1.0000,0, 1.0000
   19,'1 ',     0.000,    -8.800,    10.400,    -8.800,1.02000,    0,   100.000,   0.00000,   1.00000,   0.00000,   0.00000,1.00000,0,  100.0,    16.000,    10.600,   1,1.0000,   0,1.0000,   0,1.0000,   0,1.0000,0, 1.0000
   19,'2 ',     0.000,     0.000,   251.600,  -212.900,1.02000,    0,   100.000,   0.00000,   1.00000,   0.00000,   0.00000,1.00000,0,  100.0,   387.000,    40.000,   1,1.0000,   0,1.0000,   0,1.0000,   0,1.0000,0, 1.0000
   19,'3 ',   384.548,     0.000,     0.000,     0.000,1.02000,    0,   100.000,   0.00000,   1.00000,   0.00000,   0.00000,1.00000,1,  100.0,   387.000,    30.000,   1,1.0000,   0,1.0000,   0,1.0000,   0,1.0000,0, 1.0000
   19,'4 ',   387.000,   -28.623,   251.600,  -212.900,1.02000,    0,   100.000,   0.00000,   1.00000,   0.00000,   0.00000,1.00000,1,  100.0,   387.000,    40.000,   1,1.0000,   0,1.0000,   0,1.0000,   0,1.0000,0, 1.0000
   19,'5 ',   387.000,     0.000,     0.000,     0.000,1.02000,    0,   100.000,   0.00000,   1.00000,   0.00000,   0.00000,1.00000,1,  100.0,   387.000,    40.000,   1,1.0000,   0,1.0000,   0,1.0000,   0,1.0000,0, 1.0000
   19,'x ',     0.000,   -28.623,  9900.000, -9900.000,1.02000,    0,   100.000,   0.00000,   1.00000,   0.00000,   0.00000,1.00000,1,  100.0,   200.000,     0.000,   1,1.0000,   0,1.0000,   0,1.0000,   0,1.0000,0, 1.0000
   21,'1 ',    10.846,     4.188,     7.200,    -6.100,1.02000,    0,   100.000,   0.00000,   1.00000,   0.00000,   0.00000,1.00000,1,  100.0,    11.000,     0.200,   1,1.0000,   0,1.0000,   0,1.0000,   0,1.0000,0, 1.0000
   21,'2 ',    11.832,     4.188,     7.800,    -6.600,1.02000,    0,   100.000,   0.00000,   1.00000,   0.00000,   0.00000,1.00000,1,  100.0,    12.000,     0.200,   1,1.0000,   0,1.0000,   0,1.0000,   0,1.0000,0, 1.0000
   21,'3 ',    12.818,     4.188,     8.500,    -7.200,1.02000,    0,   100.000,   0.00000,   1.00000,   0.00000,   0.00000,1.00000,1,  100.0,    13.000,     0.200,   1,1.0000,   0,1.0000,   0,1.0000,   0,1.0000,0, 1.0000
   24,'1 ',     8.874,     4.725,     5.900,    -5.000,1.02000,    0,   100.000,   0.00000,   1.00000,   0.00000,   0.00000,1.00000,1,  100.0,     9.000,     3.000,   1,1.0000,   0,1.0000,   0,1.0000,   0,1.0000,0, 1.0000
   24,'2 ',     8.874,     4.725,     5.900,    -5.000,1.02000,    0,   100.000,   0.00000,   1.00000,   0.00000,   0.00000,1.00000,1,  100.0,     9.000,     3.000,   1,1.0000,   0,1.0000,   0,1.0000,   0,1.0000,0, 1.0000
   24,'3 ',     8.874,     4.725,     5.900,    -5.000,1.02000,    0,   100.000,   0.00000,   1.00000,   0.00000,   0.00000,1.00000,1,  100.0,     9.000,     3.000,   1,1.0000,   0,1.0000,   0,1.0000,   0,1.0000,0, 1.0000
   24,'4 ',     8.874,     4.725,     5.900,    -5.000,1.02000,    0,   100.000,   0.00000,   1.00000,   0.00000,   0.00000,1.00000,1,  100.0,     9.000,     3.000,   1,1.0000,   0,1.0000,   0,1.0000,   0,1.0000,0, 1.0000
   26,'C1',   595.000,    26.626,   446.250,  -416.500,1.02000,    0,   100.000,   0.00000,   1.00000,   0.00000,   0.00000,1.00000,1,  100.0,   595.000,   320.000,   1,1.0000,   0,1.0000,   0,1.0000,   0,1.0000,0, 1.0000
   26,'C2',   650.000,    26.626,   487.500,  -455.000,1.02000,    0,   100.000,   0.00000,   1.00000,   0.00000,   0.00000,1.00000,1,  100.0,   650.000,   320.000,   1,1.0000,   0,1.0000,   0,1.0000,   0,1.0000,0, 1.0000
   27,'C1',     0.000,    41.188,    91.950,   -85.820,1.02000,    0,   100.000,   0.00000,   1.00000,   0.00000,   0.00000,1.00000,0,  100.0,   122.600,    42.000,   1,1.0000,   0,1.0000,   0,1.0000,   0,1.0000,0, 1.0000
   28,'C1',     0.000,     0.000,    47.175,   -44.030,1.02000,    0,   100.000,   0.00000,   1.00000,   0.00000,   0.00000,1.00000,0,  100.0,    62.900,    35.000,   1,1.0000,   0,1.0000,   0,1.0000,   0,1.0000,0, 1.0000
   29,'1 ',     0.000,    -7.785,    72.800,   -61.600,1.02000,    0,   100.000,   0.00000,   1.00000,   0.00000,   0.00000,1.00000,0,  100.0,   112.000,    32.000,   1,1.0000,   0,1.0000,   0,1.0000,   0,1.0000,0, 1.0000
   30,'1 ',     3.000,     0.598,     2.700,    -2.300,1.02000,    0,   100.000,   0.00000,   1.00000,   0.00000,   0.00000,1.00000,1,  100.0,     4.100,     0.000,   1,1.0000,   0,1.0000,   0,1.0000,   0,1.0000,1, 1.0000
   30,'2 ',     6.287,     0.598,    36.000,   -30.500,1.02000,    0,   100.000,   0.00000,   1.00000,   0.00000,   0.00000,1.00000,1,  100.0,    55.400,     0.000,   1,1.0000,   0,1.0000,   0,1.0000,   0,1.0000,1, 1.0000
   31,'1 ',     0.986,    -0.600,     0.700,    -0.600,1.02000,    0,   100.000,   0.00000,   1.00000,   0.00000,   0.00000,1.00000,1,  100.0,     1.000,     0.200,   1,1.0000,   0,1.0000,   0,1.0000,   0,1.0000,0, 1.0000
   31,'2 ',     0.986,    -0.600,     0.700,    -0.600,1.02000,    0,   100.000,   0.00000,   1.00000,   0.00000,   0.00000,1.00000,1,  100.0,     1.000,     0.200,   1,1.0000,   0,1.0000,   0,1.0000,   0,1.0000,0, 1.0000
   31,'3 ',     2.564,    -1.400,     1.700,    -1.400,1.02000,    0,   100.000,   0.00000,   1.00000,   0.00000,   0.00000,1.00000,1,  100.0,     2.600,     0.900,   1,1.0000,   0,1.0000,   0,1.0000,   0,1.0000,0, 1.0000
   31,'4 ',     2.564,    -1.400,     1.700,    -1.400,1.02000,    0,   100.000,   0.00000,   1.00000,   0.00000,   0.00000,1.00000,1,  100.0,     2.600,     0.900,   1,1.0000,   0,1.0000,   0,1.0000,   0,1.0000,0, 1.0000
   31,'5 ',     2.564,    -1.400,     1.700,    -1.400,1.02000,    0,   100.000,   0.00000,   1.00000,   0.00000,   0.00000,1.00000,1,  100.0,     2.600,     2.300,   1,1.0000,   0,1.0000,   0,1.0000,   0,1.0000,0, 1.0000
   31,'6 ',    24.255,    -3.379,    16.000,   -13.500,1.02000,    0,   100.000,   0.00000,   1.00000,   0.00000,   0.00000,1.00000,1,  100.0,    24.600,     6.000,   1,1.0000,   0,1.0000,   0,1.0000,   0,1.0000,0, 1.0000
   31,'7 ',    24.255,    -3.379,    16.000,   -13.500,1.02000,    0,   100.000,   0.00000,   1.00000,   0.00000,   0.00000,1.00000,1,  100.0,    24.600,     6.000,   1,1.0000,   0,1.0000,   0,1.0000,   0,1.0000,0, 1.0000
   32,'C1',     0.000,   -32.887,   110.250,  -102.900,1.02000,    0,   100.000,   0.00000,   1.00000,   0.00000,   0.00000,1.00000,0,  100.0,   147.000,   113.000,   1,1.0000,   0,1.0000,   0,1.0000,   0,1.0000,0, 1.0000
   33,'C1',     0.000,    -9.042,    42.450,   -39.620,1.02000,    0,   100.000,   0.00000,   1.00000,   0.00000,   0.00000,1.00000,0,  100.0,    56.600,    44.000,   1,1.0000,   0,1.0000,   0,1.0000,   0,1.0000,0, 1.0000
   34,'C1',     0.000,    13.453,    43.050,   -40.180,1.02000,    0,   100.000,   0.00000,   1.00000,   0.00000,   0.00000,1.00000,0,  100.0,    57.400,    44.500,   1,1.0000,   0,1.0000,   0,1.0000,   0,1.0000,0, 1.0000
   35,'1 ',     3.155,     2.100,     2.100,    -1.800,1.02000,    0,   100.000,   0.00000,   1.00000,   0.00000,   0.00000,1.00000,1,  100.0,     3.200,     0.000,   1,1.0000,   0,1.0000,   0,1.0000,   0,1.0000,0, 1.0000
   35,'2 ',     3.155,     2.100,     2.100,    -1.800,1.02000,    0,   100.000,   0.00000,   1.00000,   0.00000,   0.00000,1.00000,1,  100.0,     3.200,     0.000,   1,1.0000,   0,1.0000,   0,1.0000,   0,1.0000,0, 1.0000
   35,'3 ',     3.944,     2.600,     2.600,    -2.200,1.02000,    0,   100.000,   0.00000,   1.00000,   0.00000,   0.00000,1.00000,1,  100.0,     4.000,     0.000,   1,1.0000,   0,1.0000,   0,1.0000,   0,1.0000,0, 1.0000
   35,'4 ',     3.944,     2.600,     2.600,    -2.200,1.02000,    0,   100.000,   0.00000,   1.00000,   0.00000,   0.00000,1.00000,1,  100.0,     4.000,     0.000,   1,1.0000,   0,1.0000,   0,1.0000,   0,1.0000,0, 1.0000
   35,'5 ',     5.916,     3.900,     3.900,    -3.300,1.02000,    0,   100.000,   0.00000,   1.00000,   0.00000,   0.00000,1.00000,1,  100.0,     6.000,     0.000,   1,1.0000,   0,1.0000,   0,1.0000,   0,1.0000,0, 1.0000
   35,'6 ',     6.902,     4.600,     4.600,    -3.900,1.02000,    0,   100.000,   0.00000,   1.00000,   0.00000,   0.00000,1.00000,1,  100.0,     7.000,     0.000,   1,1.0000,   0,1.0000,   0,1.0000,   0,1.0000,0, 1.0000
   37,'C1',   196.250,    -1.737,   165.975,  -154.910,1.02000,    0,   100.000,   0.00000,   1.00000,   0.00000,   0.00000,1.00000,1,  100.0,   221.300,   104.000,   1,1.0000,   0,1.0000,   0,1.0000,   0,1.0000,0, 1.0000
   38,'1 ',    12.000,     5.329,    70.400,   -55.300,1.02000,    0,   100.000,   0.00000,   1.00000,   0.00000,   0.00000,1.00000,1,  100.0,   100.500,     0.000,   1,1.0000,   0,1.0000,   0,1.0000,   0,1.0000,1, 1.0000
   39,'1 ',     8.000,    -2.880,    88.200,   -69.300,1.02000,    0,   100.000,   0.00000,   1.00000,   0.00000,   0.00000,1.00000,1,  100.0,   126.000,     0.000,   1,1.0000,   0,1.0000,   0,1.0000,   0,1.0000,1, 1.0000
   41,'C1',     0.000,    12.769,    49.275,   -45.990,1.02000,    0,   100.000,   0.00000,   1.00000,   0.00000,   0.00000,1.00000,0,  100.0,    65.700,    40.600,   1,1.0000,   0,1.0000,   0,1.0000,   0,1.0000,0, 1.0000
   52,'1 ',     6.287,    -0.419,    11.300,    -8.900,1.02000,    0,   100.000,   0.00000,   1.00000,   0.00000,   0.00000,1.00000,1,  100.0,    16.200,     0.000,   1,1.0000,   0,1.0000,   0,1.0000,   0,1.0000,1, 1.0000
   53,'1 ',     6.287,     0.330,    26.300,   -20.600,1.02000,    0,   100.000,   0.00000,   1.00000,   0.00000,   0.00000,1.00000,1,  100.0,    37.500,     0.000,   1,1.0000,   0,1.0000,   0,1.0000,   0,1.0000,1, 1.0000
   60,'1 ',     0.789,    -0.163,     0.600,    -0.400,1.02000,    0,   100.000,   0.00000,   1.00000,   0.00000,   0.00000,1.00000,1,  100.0,     0.800,     0.400,   1,1.0000,   0,1.0000,   0,1.0000,   0,1.0000,0, 1.0000
   60,'2 ',     9.860,    -0.163,     7.000,    -5.500,1.02000,    0,   100.000,   0.00000,   1.00000,   0.00000,   0.00000,1.00000,1,  100.0,    10.000,     4.000,   1,1.0000,   0,1.0000,   0,1.0000,   0,1.0000,0, 1.0000
   63,'C1',     0.000,     0.000,    66.150,   -61.740,1.02000,    0,   100.000,   0.00000,   1.00000,   0.00000,   0.00000,1.00000,0,  100.0,    88.200,    60.000,   1,1.0000,   0,1.0000,   0,1.0000,   0,1.0000,0, 1.0000
   63,'C2',   653.643,    34.698,   490.275,  -457.590,1.02000,    0,   100.000,   0.00000,   1.00000,   0.00000,   0.00000,1.00000,1,  100.0,   653.700,   315.000,   1,1.0000,   0,1.0000,   0,1.0000,   0,1.0000,0, 1.0000
   69,'1 ',     0.000,     0.000,    17.200,   -13.500,1.01910,    0,   100.000,   0.00000,   1.00000,   0.00000,   0.00000,1.00000,0,  100.0,    24.500,     5.000,   1,1.0000,   0,1.0000,   0,1.0000,   0,1.0000,0, 1.0000
   69,'2 ',     0.000,    -2.053,    17.200,   -13.500,1.01910,    0,   100.000,   0.00000,   1.00000,   0.00000,   0.00000,1.00000,0,  100.0,    24.500,     5.000,   1,1.0000,   0,1.0000,   0,1.0000,   0,1.0000,0, 1.0000
   69,'3 ',     0.000,    -2.053,    33.100,   -26.000,1.01910,    0,   100.000,   0.00000,   1.00000,   0.00000,   0.00000,1.00000,0,  100.0,    47.300,     9.000,   1,1.0000,   0,1.0000,   0,1.0000,   0,1.0000,0, 1.0000
   69,'x ',     0.000,     0.000,  9900.000, -9900.000,1.01910,    0,   100.000,   0.00000,   1.00000,   0.00000,   0.00000,1.00000,1,  100.0,   200.000,     0.000,   1,1.0000,   0,1.0000,   0,1.0000,   0,1.0000,0, 1.0000
   79,'1 ',     0.000,     0.000,     0.700,    -0.600,1.02000,    0,   100.000,   0.00000,   1.00000,   0.00000,   0.00000,1.00000,0,  100.0,     1.000,     0.300,   1,1.0000,   0,1.0000,   0,1.0000,   0,1.0000,0, 1.0000
   79,'10',     0.000,     5.300,     5.300,    -4.100,1.02000,    0,   100.000,   0.00000,   1.00000,   0.00000,   0.00000,1.00000,0,  100.0,     7.500,     4.000,   1,1.0000,   0,1.0000,   0,1.0000,   0,1.0000,0, 1.0000
   79,'11',     0.000,    32.900,    32.900,   -25.900,1.02000,    0,   100.000,   0.00000,   1.00000,   0.00000,   0.00000,1.00000,0,  100.0,    47.000,     1.000,   1,1.0000,   0,1.0000,   0,1.0000,   0,1.0000,0, 1.0000
   79,'12',     0.000,     0.000,   109.300,   -85.900,1.02000,    0,   100.000,   0.00000,   1.00000,   0.00000,   0.00000,1.00000,0,  100.0,   156.200,    45.000,   1,1.0000,   0,1.0000,   0,1.0000,   0,1.0000,0, 1.0000
   79,'13',     0.000,   111.230,   126.000,   -99.000,1.02000,    0,   100.000,   0.00000,   1.00000,   0.00000,   0.00000,1.00000,0,  100.0,   180.000,   110.000,   1,1.0000,   0,1.0000,   0,1.0000,   0,1.0000,0, 1.0000
   79,'14',     0.000,   111.230,   126.000,   -99.000,1.02000,    0,   100.000,   0.00000,   1.00000,   0.00000,   0.00000,1.00000,0,  100.0,   180.000,   110.000,   1,1.0000,   0,1.0000,   0,1.0000,   0,1.0000,0, 1.0000
   79,'15',     0.000,     0.000,   140.000,  -110.000,1.02000,    0,   100.000,   0.00000,   1.00000,   0.00000,   0.00000,1.00000,0,  100.0,   200.000,    65.000,   1,1.0000,   0,1.0000,   0,1.0000,   0,1.0000,0, 1.0000
   79,'2 ',     0.000,     0.000,     0.900,    -0.700,1.02000,    0,   100.000,   0.00000,   1.00000,   0.00000,   0.00000,1.00000,0,  100.0,     1.300,     0.400,   1,1.0000,   0,1.0000,   0,1.0000,   0,1.0000,0, 1.0000
   79,'3 ',     0.000,     0.000,     1.000,    -0.800,1.02000,    0,   100.000,   0.00000,   1.00000,   0.00000,   0.00000,1.00000,0,  100.0,     1.400,     0.400,   1,1.0000,   0,1.0000,   0,1.0000,   0,1.0000,0, 1.0000
...